
**** 02/03/20 11:02:46 ******* PSpice Lite (March 2016) ******* ID# 10813 ****

 ** Profile: "SCHEMATIC1-Test_1"  [ d:\usb_audio\hardware\simulation\usb_audio-pspicefiles\schematic1\test_1.sim ] 


 ****     CIRCUIT DESCRIPTION


******************************************************************************




** Creating circuit file "Test_1.cir" 
** WARNING: THIS AUTOMATICALLY GENERATED FILE MAY BE OVERWRITTEN BY SUBSEQUENT SIMULATIONS

*Libraries: 
* Profile Libraries :
* Local Libraries :
* From [PSPICE NETLIST] section of C:\Users\zeont\AppData\Roaming\SPB_Data\cdssetup\OrCAD_PSpice\17.2.0\PSpice.ini file:
.lib "nomd.lib" 

*Analysis directives: 
.TRAN  0 3m 0 
.OPTIONS ADVCONV
.PROBE64 V(alias(*)) I(alias(*)) W(alias(*)) D(alias(*)) NOISE(alias(*)) 
.INC "..\SCHEMATIC1.net" 



**** INCLUDING SCHEMATIC1.net ****
* source USB_AUDIO
E_U1         N00826 0 VALUE {LIMIT(V(0,N00742)*1E6,-15V,+15V)}
E_U2         N00779 0 VALUE {LIMIT(V(0,N00735)*1E6,-15V,+15V)}
E_U3         N00917 0 VALUE {LIMIT(V(N00903,N00912)*1E6,-15V,+15V)}
R_R1         N00742 N00826  620 TC=0,0 
R_R2         N00735 N00779  620 TC=0,0 
R_R3         N00813 N00912  620 TC=0,0 
R_R4         0 N00886  620 TC=0,0 
R_R5         N00886 N00903  620 TC=0,0 
R_R6         N00779 N00813  680 TC=0,0 
R_R7         N00826 N00886  680 TC=0,0 
C_C1         N00742 N00826  2.2n  TC=0,0 
C_C2         N00735 N00779  2.2n  TC=0,0 
R_R9         N00813 N00917  620 TC=0,0 
I_I2         N00742 N00735 DC 0Adc AC 4mAac
+SIN 0 4m 1k 0 0 0
C_C3         N00886 N00813  6.8n  TC=0,0 
C_C5         N00912 N00917  2.2n  TC=0,0 
C_C4         0 N00903  2.2n  TC=0,0 
R_R10         N00917 N074000  150 TC=0,0 
R_R11         0 N074000  16 TC=0,0 

**** RESUMING Test_1.cir ****
.END

**** 02/03/20 11:02:46 ******* PSpice Lite (March 2016) ******* ID# 10813 ****

 ** Profile: "SCHEMATIC1-Test_1"  [ d:\usb_audio\hardware\simulation\usb_audio-pspicefiles\schematic1\test_1.sim ] 


 ****     INITIAL TRANSIENT SOLUTION       TEMPERATURE =   27.000 DEG C


******************************************************************************



 NODE   VOLTAGE     NODE   VOLTAGE     NODE   VOLTAGE     NODE   VOLTAGE


(N00735)    0.0000 (N00742)    0.0000 (N00779)    0.0000 (N00813)    0.0000     

(N00826)    0.0000 (N00886)    0.0000 (N00903)    0.0000 (N00912)    0.0000     

(N00917)    0.0000 (N074000)    0.0000                   




    VOLTAGE SOURCE CURRENTS
    NAME         CURRENT


    TOTAL POWER DISSIPATION   0.00E+00  WATTS



          JOB CONCLUDED

**** 02/03/20 11:02:46 ******* PSpice Lite (March 2016) ******* ID# 10813 ****

 ** Profile: "SCHEMATIC1-Test_1"  [ d:\usb_audio\hardware\simulation\usb_audio-pspicefiles\schematic1\test_1.sim ] 


 ****     JOB STATISTICS SUMMARY


******************************************************************************



  Total job time (using Solver 1)   =         .03
